Circuit: * Z:\home\javi\github_projects\dcmotorsimple\ltspice\rc2_pwm.asc

.OP point found by inspection.

Date: Sat Aug 29 10:51:47 2020
Total elapsed time: 0.068 seconds.

tnom = 27
temp = 27
method = modified trap
totiter = 2162
traniter = 2162
tranpoints = 1082
accept = 1081
rejected = 1
matrix size = 4
fillins = 0
solver = Normal
Matrix Compiler1: 100 bytes object code size  0.2/0.1/[0.1]
Matrix Compiler2: 248 bytes object code size  0.1/0.1/[0.1]

