Circuit: * Z:\home\javi\github_projects\dcmotorsimple\ltspice\rl_pwm.asc

.OP point found by inspection.

Date: Sun Oct 25 20:21:39 2020
Total elapsed time: 0.102 seconds.

tnom = 27
temp = 27
method = modified trap
totiter = 6384
traniter = 6384
tranpoints = 3193
accept = 3107
rejected = 86
matrix size = 6
fillins = 0
solver = Normal
Matrix Compiler1: 182 bytes object code size  0.1/0.1/[0.1]
Matrix Compiler2: 322 bytes object code size  0.1/0.1/[0.1]

