Circuit: * Z:\home\javi\github_projects\dcmotorsimple\ltspice\rl_pwm.asc

Direct Newton iteration for .op point succeeded.

Date: Sun Nov 15 19:29:31 2020
Total elapsed time: 0.720 seconds.

tnom = 27
temp = 27
method = modified trap
totiter = 64983
traniter = 64973
tranpoints = 18754
accept = 14505
rejected = 4249
matrix size = 30
fillins = 10
solver = Normal
Matrix Compiler1: 2.50 KB object code size  1.5/0.9/[0.4]
Matrix Compiler2: 2.76 KB object code size  0.5/0.9/[0.4]

